LAMMPS (27 May 2021)
# ---------- Initialize Simulation ---------------------
include /home/kamran.karimi1/Project/git/vacancyDiffusion/simulations/lmpScripts/initSoftWall.mod
# NOTE: This script can be modified for different atomic structures,
# units, etc. See in.elastic for more info.
#

# Define the finite deformation size. Try several values of this
# variable to verify that results do not depend on it.
variable up equal 1.0e-6

# Define the amount of random jiggle for atoms
# This prevents atoms from staying on saddle points
variable atomjiggle equal 1.0e-5

# Uncomment one of these blocks, depending on what units
# you are using in LAMMPS and for output

# metal units, elastic constants in eV/A^3
#units		metal
#variable cfac equal 6.2414e-7
#variable cunits string eV/A^3

# metal units, elastic constants in GPa
units		metal
atom_style      atomic
variable cfac equal 1.0e-4
variable cunits string GPa

# real units, elastic constants in GPa
#units		real
#variable cfac equal 1.01325e-4
#variable cunits string GPa

# Define minimization parameters
variable etol equal 0.0
variable ftol equal 1.0e-03
variable maxiter equal 100000
variable maxeval equal 100000
variable dmax equal 1.0e-2

#---
boundary    	p p p
#---

#--- Need to set mass to something, just to satisfy LAMMPS
#mass 1 1.0e-20

#--- discretization time
variable            dt        equal     0.005         # Time step

#--- thermostat parameters
variable            damp_t    equal     100*0.005
variable            damp_p    equal     1000*0.005

# ---------- Create Atoms ---------------------
include /home/kamran.karimi1/Project/git/vacancyDiffusion/simulations/lmpScripts/CreateBox.mod
#--- comment if the box and atoms are created below!
include /home/kamran.karimi1/Project/git/vacancyDiffusion/simulations/lmpScripts/CreateCrystal.mod
#--- comment this block if atoms are parsed from a data file
#--- Create box
variable 	a      			equal   3.52
variable    volume          equal   1000*3.52^3.0/4.0
variable    lx              equal   floor(10903.552^(1.0/3.0)/3.52)

#--- define crystal structure and lattice constant a0
#--- define direction vectors, i.e., set x=[100], y=[010], z=[001] and origin point.
lattice    fcc 3.52 orient    x 1 0 0 orient y 0 1 0 orient z 0 0 1            origin 0.1 0.1 0.1
Lattice spacing in x,y,z = 3.5200000 3.5200000 3.5200000
region    		mybox block 0 6 0 6 0 6
create_box      3 mybox              ## create the simulation box, allowing a max of three species
Created orthogonal box = (0.0000000 0.0000000 0.0000000) to (21.120000 21.120000 21.120000)
create_atoms    1 box               ## create type-1 metal atoms in the box
Created 864 atoms
#

#--- Need to set mass to something, just to satisfy LAMMPS
mass    1  58.693    #--- Ni
mass    2  58.933195 #--- Co
mass    3  51.9961   #--- Cr

#--- ternary alloys
#--- get number of atoms
variable	natom	equal	"atoms"
variable	natom2	equal	floor(864/3)
variable	natom3	equal	floor(288)
#
group kind1 type 1
864 atoms in group kind1
set group kind1 type/subset 2 288 12345
Setting atom values ...
  288 settings made for type/subset
#
group kind2 type 2
288 atoms in group kind2
group remain1 subtract all  kind2
576 atoms in group remain1
#
set group remain1 type/subset 3 288 74
Setting atom values ...
  288 settings made for type/subset
group kind3 type 3
288 atoms in group kind3
#---- end of block

#---
#change_box	all	triclinic

# -------------------------------- EAM Interatomic Potential ------------------------------------#
include /home/kamran.karimi1/Project/git/vacancyDiffusion/simulations/lmpScripts/potential.mod
# NOTE: This script can be modified for different pair styles
# See in.elastic for more info.

# Choose potential
pair_style	eam/alloy
pair_coeff              * * /home/kamran.karimi1/Project/git/lammps2nd/lammps/potentials/NiCoCr.lammps.eam Ni Co Cr
#
#pair_style                eam

# Setup neighbor style
neighbor 1.0 nsq
neigh_modify once no every 1 delay 0 check yes

# Setup minimization style
min_style	     cg
min_modify	     dmax 0.01 line quadratic

# Setup output
thermo		1000
#thermo_style custom step temp pe press pxx pyy pzz pxy pxz pyz lx ly lz vol
thermo_style custom step temp pe press pxy xy vol
thermo_modify norm no

#--- fix buffer zone
include /home/kamran.karimi1/Project/git/vacancyDiffusion/simulations/lmpScripts/buffer.mod
#--- define groups
variable xxlo	equal xlo
variable x0		equal 0+0.0
#
variable xxhi	equal xhi
variable x1		equal 21.12-0.0
#
variable yylo	equal ylo
variable y0	equal 0+0.0

variable yyhi	equal yhi
variable y1		equal 21.12-0.0
#
region up block INF INF 21.12 INF INF INF
region down block INF INF INF 0 INF INF
group upp region up
0 atoms in group upp
group downn region down
0 atoms in group downn
#group lg region left
#group rg region right
#
#--- fix walls
#fix 1 upp setforce 0.0 0.0 0.0
#fix 2 downn setforce 0.0 0.0 0.0
#fix 11 lg setforce 0.0 0.0 0.0
#fix 22 rg setforce 0.0 0.0 0.0
#velocity upp set 0 0 0
#velocity downn set 0 0 0
#velocity lg set 0 0 0
#velocity rg set 0 0 0

# -------------------------------------- Minimization -------------------------------------------#

#-----------------------------
#--- compute & dump variables
#-----------------------------
compute     1 all stress/atom NULL pair
dump        1 all custom 1000 ./dumpMin.xyz id type x y z c_1[1] c_1[2] c_1[3] c_1[4] c_1[5] c_1[6]
dump_modify 1 flush yes format line "%d %d %15.14e %15.14e %15.14e %4.3e %4.3e %4.3e %4.3e %4.3e %4.3e"
#run	0
#undump		1

# -------------------------------------- Minimization -------------------------------------------#
fix 3 all box/relax  iso 0.0
minimize 0 0.001 100000 100000
  update every 1 steps, delay 0 steps, check yes
Setting up cg style minimization ...
  Unit style    : metal
  Current step  : 0
Step Temp PotEng Press Pxy Xy Volume
0            0   -3725.5447     69025.99    -471.1921            0    9420.6689
Loop time of 3.83825 on 1 procs for 588 steps with 864 atoms

Minimization stats:
  Stopping criterion = force tolerance
  Energy initial, next-to-last, final =
  Force two-norm initial, final = 1217.6249 0.00098172082
  Force max component initial, final = 1217.6018 0.00022620682
  Final line search alpha, max atom move = 0.025214982 5.7038009e-06
  Iterations, force evaluations = 588 908

#-----------------------------
#--- compute & dump variables
#-----------------------------
#dump_modify 1 flush yes append yes format line "%d %d %15.14e %15.14e %15.14e %4.3e %4.3e %4.3e %4.3e %4.3e %4.3e"

write_data data_minimized.txt
System init for write_data ...

run	0
Setting up Verlet run ...
  Unit style    : metal
  Current step  : 588
  Time step     : 0.001
Step Temp PotEng Press Pxy Xy Volume
588            0    -3734.996  0.012569711   -134.93337            0    9707.6337
Loop time of 1.509e-06 on 1 procs for 0 steps with 864 atoms

LAMMPS (27 May 2021)
# --------------------------------------- Atomic Setup ------------------------------------------#
include /home/kamran.karimi1/Project/git/vacancyDiffusion/simulations/lmpScripts/initSoftWall.mod
# NOTE: This script can be modified for different atomic structures,
# units, etc. See in.elastic for more info.
#

# Define the finite deformation size. Try several values of this
# variable to verify that results do not depend on it.
variable up equal 1.0e-6

# Define the amount of random jiggle for atoms
# This prevents atoms from staying on saddle points
variable atomjiggle equal 1.0e-5

# Uncomment one of these blocks, depending on what units
# you are using in LAMMPS and for output

# metal units, elastic constants in eV/A^3
#units		metal
#variable cfac equal 6.2414e-7
#variable cunits string eV/A^3

# metal units, elastic constants in GPa
units		metal
atom_style      atomic
variable cfac equal 1.0e-4
variable cunits string GPa

# real units, elastic constants in GPa
#units		real
#variable cfac equal 1.01325e-4
#variable cunits string GPa

# Define minimization parameters
variable etol equal 0.0
variable ftol equal 1.0e-03
variable maxiter equal 100000
variable maxeval equal 100000
variable dmax equal 1.0e-2

#---
boundary    	p p p
#---

#--- Need to set mass to something, just to satisfy LAMMPS
#mass 1 1.0e-20

#--- discretization time
variable            dt        equal     0.005         # Time step

#--- thermostat parameters
variable            damp_t    equal     100*0.005
variable            damp_p    equal     1000*0.005

# ---------- Create Atoms ---------------------
include /home/kamran.karimi1/Project/git/vacancyDiffusion/simulations/lmpScripts/CreateBox.mod
#--- comment if the box and atoms are created below!
read_data	data_minimized.txt
Reading data file ...
  orthogonal box = (-0.10615274 -0.10615274 -0.10615274) to (21.226153 21.226153 21.226153)
  reading atoms ...
  864 atoms
  reading velocities ...
  864 velocities

#---
#change_box	all	triclinic

# -------------------------------- EAM Interatomic Potential ------------------------------------#

include /home/kamran.karimi1/Project/git/vacancyDiffusion/simulations/lmpScripts/potential.mod
# NOTE: This script can be modified for different pair styles
# See in.elastic for more info.

# Choose potential
pair_style	eam/alloy
pair_coeff              * * /home/kamran.karimi1/Project/git/lammps2nd/lammps/potentials/NiCoCr.lammps.eam Ni Co Cr
#
#pair_style                eam

# Setup neighbor style
neighbor 1.0 nsq
neigh_modify once no every 1 delay 0 check yes

# Setup minimization style
min_style	     cg
min_modify	     dmax 0.01 line quadratic

# Setup output
thermo		1000
#thermo_style custom step temp pe press pxx pyy pzz pxy pxz pyz lx ly lz vol
thermo_style custom step temp pe press pxy xy vol
thermo_modify norm no

#--- fix buffer zone
include /home/kamran.karimi1/Project/git/vacancyDiffusion/simulations/lmpScripts/buffer.mod
#--- define groups
variable xxlo	equal xlo
variable x0		equal -0.106152741287273+0.0
#
variable xxhi	equal xhi
variable x1		equal 21.2261527412871-0.0
#
variable yylo	equal ylo
variable y0	equal -0.106152741287273+0.0

variable yyhi	equal yhi
variable y1		equal 21.2261527412871-0.0
#
region up block INF INF 21.2261527412871 INF INF INF
region down block INF INF INF -0.106152741287273 INF INF
group upp region up
0 atoms in group upp
group downn region down
0 atoms in group downn
#group lg region left
#group rg region right
#
#--- fix walls
#fix 1 upp setforce 0.0 0.0 0.0
#fix 2 downn setforce 0.0 0.0 0.0
#fix 11 lg setforce 0.0 0.0 0.0
#fix 22 rg setforce 0.0 0.0 0.0
#velocity upp set 0 0 0
#velocity downn set 0 0 0
#velocity lg set 0 0 0
#velocity rg set 0 0 0

#--- thermalize two partial dislocations

# -------------------------------------- General Variables --------------------------------------#
variable                  t_eq      equal     100.0*0.5
variable 				  Nstep  	equal	floor(50/0.005)

# ----------------------------------- NVT Equilibration -----------------------------------------#
compute     1 all stress/atom NULL pair
#--- initial stress
run	0
  update every 1 steps, delay 0 steps, check yes
Setting up Verlet run ...
  Unit style    : metal
  Current step  : 0
  Time step     : 0.001
Step Temp PotEng Press Pxy Xy Volume
0            0    -3734.996  0.012569711   -134.93337            0    9707.6337
Loop time of 2.033e-06 on 1 procs for 0 steps with 864 atoms

variable tmp equal press
variable p0 equal 0.0125697109917278

velocity                  all       create     $T     97364  mom    yes  rot  yes  dist  gaussian  # Dynamics starts
velocity                  all       create     500.0     97364  mom    yes  rot  yes  dist  gaussian

#thermo                    100
#thermo_style              custom    step temp etotal pe press vol
fix                      f1        all        npt temp   500.0  500.0  0.5  iso 0.0125697109917278 0.0 5 drag	1.0

#-----------------------------
#--- compute & dump variables
#-----------------------------
dump        1 all custom 1000 ./dumpThermalized.xyz id type x y z c_1[1] c_1[2] c_1[3] c_1[4] c_1[5] c_1[6]
dump_modify 1 flush yes format line "%d %d %4.3e %4.3e %4.3e %4.3e %4.3e %4.3e %4.3e %4.3e %4.3e"

run                       10000
Setting up Verlet run ...
  Unit style    : metal
  Current step  : 0
  Time step     : 0.001
Step Temp PotEng Press Pxy Xy Volume
0          500    -3734.996    6136.9424   -360.57349            0    9707.6337
Averages over the last 6 of 11 rows, steps 5000 to 10000:
Temp PotEng Press Pxy Xy Volume
494.462 -3680.54 2227.26 160.716 0 9871.7
Loop time of 43.215 on 1 procs for 10000 steps with 864 atoms

unfix                     f1
reset_timestep            0
# -------------------------------------- Write Data ----------------------------------------------#

write_data                Equilibrated_500.dat
System init for write_data ...

 ERROR, INPUT_LAMMPS_FILE with name in.lammps                                                                                                                                                                                                                                                                                                                                                                                                                                                                                                                                                                                                                                                                                                                                                                                                                                                                                                                                                                                                                                                                                                                                                                                                                                        is missing.
 The program will stop
